opendss_networks/LV24_246bus/Loads.dss
new load.Ld74_LOAD_A phases=1 bus1=B328.1.4 kv=0.249992666559  vminpu=0.1 vmaxpu=2
new load.Ld100_LOAD_B phases=1 bus1=B3403.2.4 kv=0.249992666559  vminpu=0.1 vmaxpu=2
new load.Ld135_LOAD_C phases=1 bus1=B338.3.4 kv=0.249992666559  vminpu=0.1 vmaxpu=2
new load.Ld145_LOAD_A phases=1 bus1=B1280.1.4 kv=0.249992666559  vminpu=0.1 vmaxpu=2
new load.Ld158_LOAD_B phases=1 bus1=B2902.2.4 kv=0.249992666559  vminpu=0.1 vmaxpu=2
new load.Ld160_LOAD_C phases=1 bus1=B1341.3.4 kv=0.249992666559  vminpu=0.1 vmaxpu=2
new load.Ld288_LOAD_A phases=1 bus1=B75.1.4 kv=0.249992666559  vminpu=0.1 vmaxpu=2
new load.Ld304_LOAD_B phases=1 bus1=B877.2.4 kv=0.249992666559  vminpu=0.1 vmaxpu=2
new load.Ld342_LOAD_C phases=1 bus1=B208.3.4 kv=0.249992666559  vminpu=0.1 vmaxpu=2
new load.Ld366_LOAD_A phases=1 bus1=B2854.1.4 kv=0.249992666559  vminpu=0.1 vmaxpu=2
new load.Ld422_LOAD_B phases=1 bus1=B3224.2.4 kv=0.249992666559  vminpu=0.1 vmaxpu=2
new load.Ld584_LOAD_C phases=1 bus1=B2290.3.4 kv=0.249992666559  vminpu=0.1 vmaxpu=2
new load.Ld610_LOAD_A phases=1 bus1=B2895.1.4 kv=0.249992666559  vminpu=0.1 vmaxpu=2
new load.Ld616_LOAD_B phases=1 bus1=B1720.2.4 kv=0.249992666559  vminpu=0.1 vmaxpu=2
new load.Ld672_LOAD_C phases=1 bus1=B2873.3.4 kv=0.249992666559  vminpu=0.1 vmaxpu=2
new load.Ld675_LOAD_A phases=1 bus1=B2783.1.4 kv=0.249992666559  vminpu=0.1 vmaxpu=2
new load.Ld733_LOAD_B phases=1 bus1=B3298.2.4 kv=0.249992666559  vminpu=0.1 vmaxpu=2
new load.Ld758_LOAD_C phases=1 bus1=B59.3.4 kv=0.249992666559  vminpu=0.1 vmaxpu=2
new load.Ld803_LOAD_A phases=1 bus1=B1724.1.4 kv=0.249992666559  vminpu=0.1 vmaxpu=2
new load.Ld873_LOAD_B phases=1 bus1=B821.2.4 kv=0.249992666559  vminpu=0.1 vmaxpu=2
new load.Ld884_LOAD_C phases=1 bus1=B653.3.4 kv=0.249992666559  vminpu=0.1 vmaxpu=2
new load.Ld885_LOAD_A phases=1 bus1=B2671.1.4 kv=0.249992666559  vminpu=0.1 vmaxpu=2
new load.Ld888_LOAD_B phases=1 bus1=B1539.2.4 kv=0.249992666559  vminpu=0.1 vmaxpu=2
new load.Ld894_LOAD_C phases=1 bus1=B2919.3.4 kv=0.249992666559  vminpu=0.1 vmaxpu=2
new load.Ld1056_LOAD_A phases=1 bus1=B2368.1.4 kv=0.249992666559  vminpu=0.1 vmaxpu=2
new load.Ld1065_LOAD_B phases=1 bus1=B1914.2.4 kv=0.249992666559  vminpu=0.1 vmaxpu=2
new load.Ld1070_LOAD_C phases=1 bus1=B2765.3.4 kv=0.249992666559  vminpu=0.1 vmaxpu=2
new load.Ld1125_LOAD_A phases=1 bus1=B220.1.4 kv=0.249992666559  vminpu=0.1 vmaxpu=2
new load.Ld1129_LOAD_B phases=1 bus1=B723.2.4 kv=0.249992666559  vminpu=0.1 vmaxpu=2
new load.Ld1137_LOAD_C phases=1 bus1=B1961.3.4 kv=0.249992666559  vminpu=0.1 vmaxpu=2
new load.Ld1139_LOAD_A phases=1 bus1=B1672.1.4 kv=0.249992666559  vminpu=0.1 vmaxpu=2
new load.Ld1167_LOAD_B phases=1 bus1=B499.2.4 kv=0.249992666559  vminpu=0.1 vmaxpu=2
new load.Ld1202_LOAD_C phases=1 bus1=B2345.3.4 kv=0.249992666559  vminpu=0.1 vmaxpu=2
new load.Ld1222_LOAD_A phases=1 bus1=B2072.1.4 kv=0.249992666559  vminpu=0.1 vmaxpu=2
new load.Ld1224_LOAD_B phases=1 bus1=B2454.2.4 kv=0.249992666559  vminpu=0.1 vmaxpu=2
new load.Ld1355_LOAD_C phases=1 bus1=B672.3.4 kv=0.249992666559  vminpu=0.1 vmaxpu=2
new load.Ld1440_LOAD_A phases=1 bus1=B283.1.4 kv=0.249992666559  vminpu=0.1 vmaxpu=2
new load.Ld1443_LOAD_B phases=1 bus1=B2383.2.4 kv=0.249992666559  vminpu=0.1 vmaxpu=2
new load.Ld1477_LOAD_C phases=1 bus1=B2130.3.4 kv=0.249992666559  vminpu=0.1 vmaxpu=2
new load.Ld1485_LOAD_A phases=1 bus1=B85.1.4 kv=0.249992666559  vminpu=0.1 vmaxpu=2
new load.Ld1491_LOAD_B phases=1 bus1=B279.2.4 kv=0.249992666559  vminpu=0.1 vmaxpu=2
new load.Ld1494_LOAD_C phases=1 bus1=B2343.3.4 kv=0.249992666559  vminpu=0.1 vmaxpu=2
new load.Ld1544_LOAD_A phases=1 bus1=B1051.1.4 kv=0.249992666559  vminpu=0.1 vmaxpu=2
new load.Ld1567_LOAD_B phases=1 bus1=B757.2.4 kv=0.249992666559  vminpu=0.1 vmaxpu=2
new load.Ld1577_LOAD_C phases=1 bus1=B630.3.4 kv=0.249992666559  vminpu=0.1 vmaxpu=2
new load.Ld1604_LOAD_A phases=1 bus1=B2889.1.4 kv=0.249992666559  vminpu=0.1 vmaxpu=2
new load.Ld1614_LOAD_B phases=1 bus1=B1739.2.4 kv=0.249992666559  vminpu=0.1 vmaxpu=2
new load.Ld1717_LOAD_C phases=1 bus1=B1415.3.4 kv=0.249992666559  vminpu=0.1 vmaxpu=2
new load.Ld1742_LOAD_A phases=1 bus1=B2027.1.4 kv=0.249992666559  vminpu=0.1 vmaxpu=2
new load.Ld1778_LOAD_B phases=1 bus1=B3113.2.4 kv=0.249992666559  vminpu=0.1 vmaxpu=2
new load.Ld1847_LOAD_C phases=1 bus1=B2367.3.4 kv=0.249992666559  vminpu=0.1 vmaxpu=2
new load.Ld1859_LOAD_A phases=1 bus1=B423.1.4 kv=0.249992666559  vminpu=0.1 vmaxpu=2
new load.Ld1960_LOAD_B phases=1 bus1=B376.2.4 kv=0.249992666559  vminpu=0.1 vmaxpu=2
new load.Ld1994_LOAD_C phases=1 bus1=B2100.3.4 kv=0.249992666559  vminpu=0.1 vmaxpu=2
new load.Ld2097_LOAD_A phases=1 bus1=B1974.1.4 kv=0.249992666559  vminpu=0.1 vmaxpu=2
new load.Ld2125_LOAD_B phases=1 bus1=B1100.2.4 kv=0.249992666559  vminpu=0.1 vmaxpu=2
new load.Ld2130_LOAD_C phases=1 bus1=B1940.3.4 kv=0.249992666559  vminpu=0.1 vmaxpu=2
new load.Ld2161_LOAD_A phases=1 bus1=B2599.1.4 kv=0.249992666559  vminpu=0.1 vmaxpu=2
new load.Ld2208_LOAD_B phases=1 bus1=B122.2.4 kv=0.249992666559  vminpu=0.1 vmaxpu=2
new load.Ld2219_LOAD_C phases=1 bus1=B661.3.4 kv=0.249992666559  vminpu=0.1 vmaxpu=2
new load.Ld2233_LOAD_A phases=1 bus1=B2363.1.4 kv=0.249992666559  vminpu=0.1 vmaxpu=2
new load.Ld2274_LOAD_B phases=1 bus1=B1820.2.4 kv=0.249992666559  vminpu=0.1 vmaxpu=2
new load.Ld2325_LOAD_C phases=1 bus1=B2380.3.4 kv=0.249992666559  vminpu=0.1 vmaxpu=2
new load.Ld2377_LOAD_A phases=1 bus1=B2790.1.4 kv=0.249992666559  vminpu=0.1 vmaxpu=2
new load.Ld2389_LOAD_B phases=1 bus1=B1654.2.4 kv=0.249992666559  vminpu=0.1 vmaxpu=2
new load.Ld2403_LOAD_C phases=1 bus1=B3009.3.4 kv=0.249992666559  vminpu=0.1 vmaxpu=2
new load.Ld2579_LOAD_A phases=1 bus1=B2058.1.4 kv=0.249992666559  vminpu=0.1 vmaxpu=2
new load.Ld2619_LOAD_B phases=1 bus1=B2684.2.4 kv=0.249992666559  vminpu=0.1 vmaxpu=2
new load.Ld2675_LOAD_C phases=1 bus1=B53.3.4 kv=0.249992666559  vminpu=0.1 vmaxpu=2
new load.Ld2709_LOAD_A phases=1 bus1=B2823.1.4 kv=0.249992666559  vminpu=0.1 vmaxpu=2
new load.Ld2720_LOAD_B phases=1 bus1=B3188.2.4 kv=0.249992666559  vminpu=0.1 vmaxpu=2
new load.Ld2818_LOAD_C phases=1 bus1=B2731.3.4 kv=0.249992666559  vminpu=0.1 vmaxpu=2
new load.Ld2834_LOAD_A phases=1 bus1=B3025.1.4 kv=0.249992666559  vminpu=0.1 vmaxpu=2
new load.Ld2963_LOAD_B phases=1 bus1=B517.2.4 kv=0.249992666559  vminpu=0.1 vmaxpu=2
new load.Ld3130_LOAD_C phases=1 bus1=B1830.3.4 kv=0.249992666559  vminpu=0.1 vmaxpu=2
new load.Ld3135_LOAD_A phases=1 bus1=B2148.1.4 kv=0.249992666559  vminpu=0.1 vmaxpu=2
new load.Ld3145_LOAD_B phases=1 bus1=B3208.2.4 kv=0.249992666559  vminpu=0.1 vmaxpu=2
new load.Ld3199_LOAD_C phases=1 bus1=B1525.3.4 kv=0.249992666559  vminpu=0.1 vmaxpu=2
new load.Ld3200_LOAD_A phases=1 bus1=B3052.1.4 kv=0.249992666559  vminpu=0.1 vmaxpu=2
new load.Ld3250_LOAD_B phases=1 bus1=B22.2.4 kv=0.249992666559  vminpu=0.1 vmaxpu=2
new load.Ld3316_LOAD_C phases=1 bus1=B3345.3.4 kv=0.249992666559  vminpu=0.1 vmaxpu=2
new load.Ld3369_LOAD_A phases=1 bus1=B3155.1.4 kv=0.249992666559  vminpu=0.1 vmaxpu=2
new load.Ld3381_LOAD_B phases=1 bus1=B1883.2.4 kv=0.249992666559  vminpu=0.1 vmaxpu=2
new load.Ld3445_LOAD_C phases=1 bus1=B1459.3.4 kv=0.249992666559  vminpu=0.1 vmaxpu=2
new load.Ld3462_LOAD_A phases=1 bus1=B2640.1.4 kv=0.249992666559  vminpu=0.1 vmaxpu=2
new load.Ld3504_LOAD_B phases=1 bus1=B788.2.4 kv=0.249992666559  vminpu=0.1 vmaxpu=2
new load.Ld3505_LOAD_C phases=1 bus1=B1697.3.4 kv=0.249992666559  vminpu=0.1 vmaxpu=2
new load.Ld3544_LOAD_A phases=1 bus1=B2189.1.4 kv=0.249992666559  vminpu=0.1 vmaxpu=2
new load.Ld3553_LOAD_B phases=1 bus1=B684.2.4 kv=0.249992666559  vminpu=0.1 vmaxpu=2
new load.Ld3559_LOAD_C phases=1 bus1=B2464.3.4 kv=0.249992666559  vminpu=0.1 vmaxpu=2
new load.Ld3572_LOAD_A phases=1 bus1=B1846.1.4 kv=0.249992666559  vminpu=0.1 vmaxpu=2
new load.Ld3587_LOAD_B phases=1 bus1=B511.2.4 kv=0.249992666559  vminpu=0.1 vmaxpu=2
new load.Ld3588_LOAD_C phases=1 bus1=B2641.3.4 kv=0.249992666559  vminpu=0.1 vmaxpu=2
new load.Ld3612_LOAD_A phases=1 bus1=B2183.1.4 kv=0.249992666559  vminpu=0.1 vmaxpu=2
new load.Ld3716_LOAD_B phases=1 bus1=B2934.2.4 kv=0.249992666559  vminpu=0.1 vmaxpu=2
new load.Ld3763_LOAD_C phases=1 bus1=B3341.3.4 kv=0.249992666559  vminpu=0.1 vmaxpu=2
new load.Ld3765_LOAD_A phases=1 bus1=B3201.1.4 kv=0.249992666559  vminpu=0.1 vmaxpu=2
new load.Ld3805_LOAD_B phases=1 bus1=B2881.2.4 kv=0.249992666559  vminpu=0.1 vmaxpu=2
new load.Ld3879_LOAD_C phases=1 bus1=B1412.3.4 kv=0.249992666559  vminpu=0.1 vmaxpu=2
new load.Ld3894_LOAD_A phases=1 bus1=B2129.1.4 kv=0.249992666559  vminpu=0.1 vmaxpu=2
new load.Ld3935_LOAD_B phases=1 bus1=B3323.2.4 kv=0.249992666559  vminpu=0.1 vmaxpu=2
new load.Ld3942_LOAD_C phases=1 bus1=B2207.3.4 kv=0.249992666559  vminpu=0.1 vmaxpu=2
new load.Ld3991_LOAD_A phases=1 bus1=B445.1.4 kv=0.249992666559  vminpu=0.1 vmaxpu=2
new load.Ld4107_LOAD_B phases=1 bus1=B2152.2.4 kv=0.249992666559  vminpu=0.1 vmaxpu=2
new load.Ld4136_LOAD_C phases=1 bus1=B827.3.4 kv=0.249992666559  vminpu=0.1 vmaxpu=2
new load.Ld4174_LOAD_A phases=1 bus1=B160.1.4 kv=0.249992666559  vminpu=0.1 vmaxpu=2
new load.Ld4182_LOAD_B phases=1 bus1=B1823.2.4 kv=0.249992666559  vminpu=0.1 vmaxpu=2
new load.Ld4187_LOAD_C phases=1 bus1=B2120.3.4 kv=0.249992666559  vminpu=0.1 vmaxpu=2
new load.Ld4226_LOAD_A phases=1 bus1=B2013.1.4 kv=0.249992666559  vminpu=0.1 vmaxpu=2
new load.Ld4347_LOAD_B phases=1 bus1=B2198.2.4 kv=0.249992666559  vminpu=0.1 vmaxpu=2
new load.Ld4402_LOAD_C phases=1 bus1=B844.3.4 kv=0.249992666559  vminpu=0.1 vmaxpu=2
new load.Ld4454_LOAD_A phases=1 bus1=B3407.1.4 kv=0.249992666559  vminpu=0.1 vmaxpu=2
new load.Ld4457_LOAD_B phases=1 bus1=B1409.2.4 kv=0.249992666559  vminpu=0.1 vmaxpu=2
new load.Ld4502_LOAD_C phases=1 bus1=B1691.3.4 kv=0.249992666559  vminpu=0.1 vmaxpu=2
new load.Ld4514_LOAD_A phases=1 bus1=B1138.1.4 kv=0.249992666559  vminpu=0.1 vmaxpu=2
new load.Ld4541_LOAD_B phases=1 bus1=B3038.2.4 kv=0.249992666559  vminpu=0.1 vmaxpu=2
new load.Ld4545_LOAD_C phases=1 bus1=B2298.3.4 kv=0.249992666559  vminpu=0.1 vmaxpu=2
new load.Ld4566_LOAD_A phases=1 bus1=B510.1.4 kv=0.249992666559  vminpu=0.1 vmaxpu=2
new load.Ld4582_LOAD_B phases=1 bus1=B796.2.4 kv=0.249992666559  vminpu=0.1 vmaxpu=2
new load.Ld4607_LOAD_C phases=1 bus1=B3073.3.4 kv=0.249992666559  vminpu=0.1 vmaxpu=2
new load.Ld4641_LOAD_A phases=1 bus1=B2784.1.4 kv=0.249992666559  vminpu=0.1 vmaxpu=2
